Version 4
SHEET 1 1308 744
WIRE 736 80 624 80
WIRE 944 80 736 80
WIRE 624 128 624 80
WIRE 736 192 736 80
WIRE 96 240 32 240
WIRE 480 240 176 240
WIRE 624 240 624 192
WIRE 624 240 480 240
WIRE 480 256 480 240
WIRE 432 320 336 320
WIRE 944 336 944 80
WIRE 32 368 32 240
WIRE 224 368 32 368
WIRE 368 368 304 368
WIRE 480 368 480 352
WIRE 480 368 368 368
WIRE 624 368 480 368
WIRE 736 368 736 256
WIRE 736 368 624 368
WIRE 432 400 400 400
WIRE 624 464 624 368
WIRE 736 464 736 368
WIRE 32 496 32 368
WIRE 96 496 32 496
WIRE 480 496 480 480
WIRE 480 496 176 496
WIRE 336 512 336 320
WIRE 400 512 400 400
WIRE 480 544 480 496
WIRE 624 608 624 528
WIRE 624 608 480 608
WIRE 624 656 624 608
WIRE 624 736 624 720
WIRE 736 736 736 528
WIRE 736 736 624 736
WIRE 944 736 944 416
WIRE 944 736 736 736
FLAG 368 368 0
FLAG 336 592 0
FLAG 400 592 0
FLAG 512 256 0
FLAG 512 464 0
SYMBOL voltage 208 368 R270
WINDOW 123 0 0 Left 2
WINDOW 39 0 0 Left 2
SYMATTR InstName V1
SYMATTR Value {Vin}
SYMBOL ind 80 512 R270
WINDOW 0 32 56 VTop 2
WINDOW 3 5 56 VBottom 2
SYMATTR InstName L1
SYMATTR Value {L}
SYMBOL ind 80 256 R270
WINDOW 0 32 56 VTop 2
WINDOW 3 5 56 VBottom 2
SYMATTR InstName L2
SYMATTR Value {L}
SYMBOL cap 464 544 R0
SYMATTR InstName C2
SYMATTR Value {C}
SYMBOL cap 720 192 R0
SYMATTR InstName C3
SYMATTR Value {C}
SYMBOL diode 640 192 R180
WINDOW 0 24 64 Left 2
WINDOW 3 24 0 Left 2
SYMATTR InstName D1
SYMATTR Value STTH6012
SYMBOL voltage 336 496 R0
WINDOW 3 -558 105 Left 2
WINDOW 123 0 0 Left 2
WINDOW 39 0 0 Left 2
SYMATTR Value PULSE(0 15 0 0 0 {1/{Freq} *{PWM12}} {1/{Freq}})
SYMATTR InstName V2
SYMBOL voltage 400 496 R0
WINDOW 3 -549 148 Left 2
WINDOW 123 0 0 Left 2
WINDOW 39 0 0 Left 2
SYMATTR Value PULSE(0 15 {0.5/{Freq}} 0 0 {1/{Freq} *{PWM12}} {1/{Freq}})
SYMATTR InstName V3
SYMBOL nmos_TO247_3L 432 240 R0
SYMATTR Value C2M0160120D
SYMATTR InstName U1
SYMBOL nmos_TO247_3L 432 480 M180
SYMATTR Value C2M0160120D
SYMATTR InstName U2
SYMBOL diode 640 528 R180
WINDOW 0 24 64 Left 2
WINDOW 3 24 0 Left 2
SYMATTR InstName D4
SYMATTR Value STTH6012
SYMBOL diode 640 720 R180
WINDOW 0 24 64 Left 2
WINDOW 3 24 0 Left 2
SYMATTR InstName D2
SYMATTR Value STTH6012
SYMBOL cap 720 464 R0
SYMATTR InstName C1
SYMATTR Value {C}
SYMBOL res 928 320 R0
SYMATTR InstName R1
SYMATTR Value 22.5
TEXT -248 -216 Left 2 !.tran 0.03 startup
TEXT -248 -168 Left 2 !.param PWM12=0.5 Freq=50000 C=220µ L=150µ Vin=10
TEXT -248 -192 Left 2 !.include C2M0160120D.lib
TEXT -240 -40 Left 2 !.model STTH6012 D(Is=21.196E-6 N=3.1366 Rs=6.1729E-3 Cjo=586.19E-12 M=.41675 Vj=.85569 Nr=4.9950 Fc=0.5 tt=90.0000E-9 Ikf=.34615)
