Version 4
SHEET 1 880 680
WIRE 336 -48 80 -48
WIRE 336 32 336 -48
WIRE 32 112 -144 112
WIRE 128 144 80 144
WIRE 336 144 336 112
WIRE 336 144 128 144
WIRE -144 208 -144 192
FLAG -144 208 0
FLAG 128 144 0
FLAG 192 48 0
SYMBOL nmos_TO247_3L 32 32 R0
SYMATTR Value C2M0160120D
SYMATTR InstName U1
SYMBOL res 320 16 R0
SYMATTR InstName R1
SYMATTR Value 100
SYMBOL voltage 80 -64 R0
WINDOW 123 0 0 Left 2
WINDOW 39 0 0 Left 2
SYMATTR InstName V2
SYMATTR Value 100
SYMBOL voltage -144 96 R0
WINDOW 123 0 0 Left 2
WINDOW 39 0 0 Left 2
SYMATTR InstName V1
SYMATTR Value -50
SYMBOL voltage 96 48 R270
WINDOW 0 32 56 VTop 2
WINDOW 3 -32 56 VBottom 2
WINDOW 123 0 0 Left 2
WINDOW 39 0 0 Left 2
SYMATTR InstName V3
SYMATTR Value 80
TEXT -928 -8 Left 2 !.tran 0.025
TEXT -928 -56 Left 2 !.include C2M0160120D.lib
TEXT -928 -112 Left 2 !.param PWM12=0.5 Freq=500
