Version 4
SHEET 1 880 680
WIRE 336 -48 80 -48
WIRE 208 32 112 32
WIRE 336 32 336 -48
WIRE 112 48 112 32
WIRE -16 112 -144 112
WIRE 32 112 -16 112
WIRE -144 128 -144 112
WIRE 128 144 80 144
WIRE 336 144 336 112
WIRE 336 144 128 144
WIRE 336 192 80 192
WIRE 336 272 336 192
WIRE -16 352 -16 112
WIRE 32 352 -16 352
WIRE 80 384 80 368
WIRE 128 384 80 384
WIRE 336 384 336 352
WIRE 336 384 128 384
FLAG -144 208 0
FLAG 128 144 0
FLAG 128 384 0
FLAG 208 112 0
SYMBOL voltage -144 112 R0
WINDOW 3 -558 105 Left 2
WINDOW 123 0 0 Left 2
WINDOW 39 0 0 Left 2
SYMATTR Value PULSE(0 15 0 0 0 {1/{Freq} *{PWM12}} {1/{Freq}})
SYMATTR InstName V1
SYMBOL nmos_TO247_3L 32 32 R0
SYMATTR Value C2M0160120D
SYMATTR InstName U1
SYMBOL res 64 -64 R0
SYMATTR InstName R1
SYMATTR Value 100
SYMBOL voltage 336 16 R0
WINDOW 123 0 0 Left 2
WINDOW 39 0 0 Left 2
SYMATTR InstName V2
SYMATTR Value 100
SYMBOL res 64 176 R0
SYMATTR InstName R2
SYMATTR Value 100
SYMBOL voltage 336 256 R0
WINDOW 123 0 0 Left 2
WINDOW 39 0 0 Left 2
SYMATTR InstName V3
SYMATTR Value 100
SYMBOL nmos 32 272 R0
SYMATTR InstName M1
SYMATTR Value BSB014N04LX3
SYMBOL voltage 208 16 R0
WINDOW 123 0 0 Left 2
WINDOW 39 0 0 Left 2
SYMATTR InstName V4
SYMATTR Value 150
TEXT -928 -8 Left 2 !.tran 0.025
TEXT -928 -56 Left 2 !.include C2M0160120D.lib
TEXT -928 -112 Left 2 !.param Freq=50000 PWM12=0.8
