Version 4
SHEET 1 1308 744
WIRE 736 80 624 80
WIRE 944 80 736 80
WIRE 624 128 624 80
WIRE 944 176 944 80
WIRE 736 192 736 80
WIRE 96 240 32 240
WIRE 480 240 176 240
WIRE 624 240 624 192
WIRE 624 240 480 240
WIRE 480 256 480 240
WIRE 432 320 336 320
WIRE 32 368 32 240
WIRE 224 368 32 368
WIRE 368 368 304 368
WIRE 480 368 480 352
WIRE 480 368 368 368
WIRE 736 368 736 256
WIRE 736 368 480 368
WIRE 944 368 944 256
WIRE 944 368 736 368
WIRE 336 416 336 320
FLAG 368 368 0
FLAG 336 496 0
FLAG 512 256 0
SYMBOL voltage 208 368 R270
WINDOW 123 0 0 Left 2
WINDOW 39 0 0 Left 2
SYMATTR InstName V1
SYMATTR Value {Vin}
SYMBOL ind 80 256 R270
WINDOW 0 32 56 VTop 2
WINDOW 3 5 56 VBottom 2
SYMATTR InstName L2
SYMATTR Value {L}
SYMBOL cap 720 192 R0
SYMATTR InstName C3
SYMATTR Value {C}
SYMBOL diode 640 192 R180
WINDOW 0 24 64 Left 2
WINDOW 3 24 0 Left 2
SYMATTR InstName D1
SYMATTR Value STTH6012
SYMBOL voltage 336 400 R0
WINDOW 3 -558 105 Left 2
WINDOW 123 0 0 Left 2
WINDOW 39 0 0 Left 2
SYMATTR Value PULSE(0 15 0 0 0 {1/{Freq} *{PWM12}} {1/{Freq}})
SYMATTR InstName V2
SYMBOL nmos_TO247_3L 432 240 R0
SYMATTR Value C2M0160120D
SYMATTR InstName U1
SYMBOL res 928 160 R0
SYMATTR InstName R1
SYMATTR Value 1k
TEXT -248 -216 Left 2 !.tran 0.03 startup
TEXT -248 -168 Left 2 !.param PWM12=0.5 Freq=50000 C=2.2u L=15m Vin=10
TEXT -248 -192 Left 2 !.include C2M0160120D.lib
TEXT -240 -40 Left 2 !.model STTH6012 D(Is=21.196E-6 N=3.1366 Rs=6.1729E-3 Cjo=586.19E-12 M=.41675 Vj=.85569 Nr=4.9950 Fc=0.5 tt=90.0000E-9 Ikf=.34615)
