Version 4
SHEET 1 1096 680
WIRE -64 -304 -80 -304
WIRE -80 -224 -112 -224
WIRE -112 -208 -112 -224
WIRE -80 -208 -80 -224
WIRE 256 -176 32 -176
WIRE 128 -144 112 -144
WIRE 256 -128 256 -176
WIRE -64 -112 -64 -304
WIRE -96 -96 -304 -96
WIRE 32 -80 32 -176
WIRE 32 -80 -32 -80
WIRE -304 -64 -304 -96
WIRE -96 -64 -240 -64
WIRE 208 -64 112 -64
WIRE -80 -48 -80 -128
WIRE -64 -48 -80 -48
WIRE 32 48 32 -80
WIRE 16 96 -96 96
WIRE 160 96 96 96
WIRE 256 96 160 96
WIRE 416 96 336 96
WIRE 544 96 416 96
WIRE -96 112 -96 96
WIRE 544 112 544 96
WIRE 160 128 160 96
WIRE 416 128 416 96
WIRE -96 224 -96 192
WIRE 160 224 160 192
WIRE 160 224 -96 224
WIRE 416 224 416 192
WIRE 416 224 160 224
WIRE 544 224 544 192
WIRE 544 224 416 224
FLAG -304 16 0
FLAG -240 16 0
FLAG 80 48 0
FLAG -112 -208 0
FLAG 256 -80 0
FLAG 112 -64 0
FLAG 160 224 0
SYMBOL voltage -96 96 R0
WINDOW 123 0 0 Left 2
WINDOW 39 0 0 Left 2
SYMATTR InstName V1
SYMATTR Value 200
SYMBOL res 528 96 R0
SYMATTR InstName R1
SYMATTR Value 7.225
SYMBOL cap 400 128 R0
SYMATTR InstName C1
SYMATTR Value 3.46µ
SYMBOL ind 240 112 R270
WINDOW 0 32 56 VTop 2
WINDOW 3 5 56 VBottom 2
SYMATTR InstName L1
SYMATTR Value 22m
SYMBOL diode 176 192 R180
WINDOW 0 24 64 Left 2
WINDOW 3 24 0 Left 2
SYMATTR InstName D1
SYMBOL sw 112 96 R90
SYMATTR InstName S1
SYMBOL Opamps\\UniversalOpamp2 -64 -80 R0
WINDOW 0 -16 0 Left 2
SYMATTR InstName U2
SYMBOL voltage -304 -80 R0
WINDOW 3 -181 -71 Left 2
WINDOW 123 0 0 Left 2
WINDOW 39 0 0 Left 2
SYMATTR Value PULSE(0 100 0 0.1m 0.1m 0 0.2m)
SYMATTR InstName V4
SYMBOL voltage -240 -80 R0
WINDOW 123 0 0 Left 2
WINDOW 39 0 0 Left 2
WINDOW 3 34 84 Left 2
SYMATTR InstName V5
SYMATTR Value 85
SYMBOL voltage -80 -320 R0
WINDOW 123 0 0 Left 2
WINDOW 39 0 0 Left 2
SYMATTR InstName V6
SYMATTR Value 1
SYMBOL voltage -80 -224 R0
WINDOW 123 0 0 Left 2
WINDOW 39 0 0 Left 2
SYMATTR InstName V2
SYMATTR Value 1
SYMBOL sw 208 -48 R180
SYMATTR InstName S2
SYMBOL voltage 112 -160 R0
WINDOW 123 0 0 Left 2
WINDOW 39 0 0 Left 2
WINDOW 3 34 84 Left 2
SYMATTR InstName V3
SYMATTR Value 1
SYMBOL res 224 -160 R90
WINDOW 0 0 56 VBottom 2
WINDOW 3 32 56 VTop 2
SYMATTR InstName R2
SYMATTR Value 1
TEXT -184 -96 Left 2 ;V1
TEXT -184 -64 Left 2 ;V2
TEXT -494 242 Left 2 !.tran 0.1
TEXT -488 264 Left 2 !.model SW SW()
