Version 4
SHEET 1 2104 680
WIRE 1696 -48 1520 -48
WIRE 1872 -48 1696 -48
WIRE 1968 -32 1936 -32
WIRE 1520 -16 1520 -48
WIRE 1664 -16 1584 -16
WIRE 1872 -16 1664 -16
WIRE 1424 32 1392 32
WIRE 1392 48 1392 32
WIRE 1424 48 1424 32
WIRE 1696 144 1696 -48
WIRE 1968 160 1936 160
WIRE -32 176 -32 144
WIRE 560 176 560 144
WIRE 1664 176 1664 -16
FLAG -32 256 0
FLAG 560 256 0
FLAG 1520 64 0
FLAG 1584 64 0
FLAG 1392 48 0
FLAG 1904 -64 V+
IOPIN 1904 -64 BiDir
FLAG 1424 -48 V+
IOPIN 1424 -48 BiDir
FLAG 1424 128 V-
IOPIN 1424 128 BiDir
FLAG 1904 0 V-
IOPIN 1904 0 BiDir
FLAG 1904 128 V+
IOPIN 1904 128 BiDir
FLAG 1904 192 V-
IOPIN 1904 192 BiDir
SYMBOL voltage -32 160 R0
WINDOW 3 -181 -71 Left 2
WINDOW 123 0 0 Left 2
WINDOW 39 0 0 Left 2
SYMATTR Value PULSE(-1 1 0 0 0 {0.2m*{PWM}} 0.2m)
SYMATTR InstName V1
SYMBOL voltage 560 160 R0
WINDOW 3 -181 -71 Left 2
WINDOW 123 0 0 Left 2
WINDOW 39 0 0 Left 2
SYMATTR Value PULSE(1 -1 0 0 0 {0.2m*{1-PWM}} 0.2m)
SYMATTR InstName V2
SYMBOL Opamps\\UniversalOpamp2 1904 -32 R0
WINDOW 0 -16 0 Left 2
SYMATTR InstName U1
SYMBOL voltage 1520 -32 R0
WINDOW 3 -181 -71 Left 2
WINDOW 123 0 0 Left 2
WINDOW 39 0 0 Left 2
SYMATTR Value PULSE(0 100 0 0.1m 0.1m 0 0.2m)
SYMATTR InstName V3
SYMBOL voltage 1584 -32 R0
WINDOW 123 0 0 Left 2
WINDOW 39 0 0 Left 2
WINDOW 3 34 84 Left 2
SYMATTR Value 25
SYMATTR InstName V4
SYMBOL voltage 1424 -64 R0
WINDOW 123 0 0 Left 2
WINDOW 39 0 0 Left 2
SYMATTR InstName V5
SYMATTR Value 1
SYMBOL voltage 1424 32 R0
WINDOW 123 0 0 Left 2
WINDOW 39 0 0 Left 2
SYMATTR InstName V6
SYMATTR Value 1
SYMBOL Opamps\\UniversalOpamp2 1904 160 R0
WINDOW 0 -16 0 Left 2
SYMATTR InstName U3
TEXT -672 152 Left 2 !.tran 0.01
TEXT -184 312 Left 2 !.param PWM=0.2
TEXT 1640 -48 Left 2 ;V1
TEXT 1640 -16 Left 2 ;V2
